LTspice 26.0.1 for Windows
Circuit: C:\School\Spring_26\Junior_Design\Junior_Design\Power_Supply\Schematics\UnregulatedPowerSupply.net
Start Time: Tue Jan 27 00:36:08 2026
solver = Normal
Maximum thread count: 24
tnom = 27
temp = 27
method = modified trap
.OP point found by inspection.
.OP point found by inspection.
Total elapsed time: 0.125 seconds.

Files loaded:
C:\School\Spring_26\Junior_Design\Junior_Design\Power_Supply\Schematics\UnregulatedPowerSupply.net
C:\Users\sreer\AppData\Local\LTspice\lib\cmp\standard.dio

